testData/tamu2000/pfcases_100_zone16/Equ_tx2000_hr_4639_mod_v23_zone16_pslf.raw
0  100.000 
THIS IS A SYNTHETIC POWER SYSTEM MODEL THAT DOES NOT REPRESE
DATA RESEARCH PROJECT AND CONTAINS NO CEII.
1004,  2,  54.163,  -26.928,  0.000,  0.000,  1,  1.02006,  -22.3246,  'O DONNEL',  230.00,  9
1009,  2,  29.961,  -2.771,  0.000,  0.000,  1,  1.00946,  -13.4227,  'IRAAN 2 ',  13.800,  9
1021,  2,  46.727,  -16.997,  0.000,  0.000,  1,  1.00249,  -12.8687,  'BIG SPRI',  13.800,  9
1023,  2,  42.590,  -1.207,  0.000,  0.000,  1,  1.01000,  -11.5034,  'O DONNEL',  13.800,  9
1026,  2,  44.757,  -11.110,  0.000,  0.000,  1,  1.00109,  -10.3323,  'BIG SPRI',  13.800,  9
1033,  2,  174.222,  -20.894,  0.000,  0.000,  1,  1.00000,  -24.2309,  'MCCAMEY ',  230.00,  9
1035,  2,  53.679,  -12.855,  0.000,  0.000,  1,  1.00294,  -9.2155,  'BIG SPRI',  13.800,  9
1039,  2,  27.949,  -6.353,  0.000,  0.000,  1,  1.00000,  -10.8123,  'FORT STO',  22.000,  9
1042,  2,  61.266,  -5.608,  0.000,  0.000,  1,  1.00000,  -4.6137,  'FORSAN 1',  13.800,  9
1043,  2,  45.451,  -5.997,  0.000,  0.000,  1,  1.00000,  -8.6540,  'FORSAN 2',  13.800,  9
1048,  2,  57.568,  -7.140,  0.000,  0.000,  1,  1.00000,  -19.8340,  'MONAHANS',  18.000,  9
1049,  2,  33.876,  -1.885,  0.000,  0.000,  1,  1.00000,  -16.9554,  'MONAHANS',  18.000,  9
1053,  2,  36.016,  -8.623,  0.000,  0.000,  1,  1.00700,  -24.3752,  'MONAHANS',  230.00,  9
1057,  2,  80.826,  -19.620,  0.000,  0.000,  1,  1.00092,  -13.2270,  'LENORAH ',  18.000,  9
1066,  2,  65.748,  -5.998,  0.000,  0.000,  1,  1.00000,  -5.1880,  'BIG SPRI',  13.800,  9
1070,  2,  57.903,  0.616,  0.000,  0.000,  1,  1.04000,  -12.5601,  'IRAAN 1 ',  13.800,  9
1072,  3,  28.025,  -1.669,  0.000,  0.000,  1,  1.01000,  -31.8411,  'ODESSA 1',  18.000,  9
1073,  2,  20.786,  -1.204,  0.000,  0.000,  1,  1.01000,  -28.5464,  'ODESSA 1',  18.000,  9
1074,  2,  21.672,  -0.143,  0.000,  0.000,  1,  1.01000,  -28.7418,  'ODESSA 1',  18.000,  9
1075,  2,  26.315,  -0.193,  0.000,  0.000,  1,  1.01000,  -29.5498,  'ODESSA 1',  18.000,  9
1076,  2,  58.921,  -3.069,  0.000,  0.000,  1,  1.01000,  -31.1829,  'ODESSA 1',  18.000,  9
1077,  2,  22.288,  -0.338,  0.000,  0.000,  1,  1.01000,  -28.8728,  'ODESSA 1',  18.000,  9
1081,  2,  60.869,  -31.607,  0.000,  0.000,  1,  1.01000,  -25.6036,  'ODESSA 1',  230.00,  9
1082,  2,  77.444,  -28.627,  0.000,  0.000,  1,  1.02029,  -14.0761,  'FORT STO',  115.00,  9
1084,  2,  108.637,  -45.321,  0.000,  0.000,  1,  1.02984,  -21.4339,  'BIG SPRI',  115.00,  9
1088,  2,  47.769,  -5.398,  0.000,  0.000,  1,  1.00000,  -15.6620,  'MCCAMEY ',  115.00,  9
1090,  2,  120.068,  0.197,  0.000,  0.000,  1,  1.02000,  -29.5494,  'GOLDSMIT',  115.00,  9
2001,  1,  0.000,  0.000,  0.000,  0.000,  2,  1.02158,  -55.7273,  'PARIS 3 ',  161.00,  11
2002,  1,  0.000,  0.000,  0.000,  0.000,  2,  1.02690,  -53.3855,  'SAVOY 0 ',  500.00,  11
2003,  1,  0.000,  0.000,  0.000,  0.000,  2,  1.02788,  -54.8994,  'SAVOY 1 ',  161.00,  11
2004,  2,  0.000,  0.000,  0.000,  0.000,  2,  1.02077,  -52.4383,  'SAVOY 2 ',  13.800,  11
2005,  2,  0.000,  0.000,  0.000,  0.000,  2,  1.02000,  -52.2758,  'SAVOY 3 ',  13.800,  11
2006,  2,  0.000,  0.000,  0.000,  0.000,  2,  1.02000,  -51.6576,  'SAVOY 4 ',  13.800,  11
2007,  1,  0.000,  0.000,  0.000,  0.000,  2,  1.02423,  -55.2663,  'HONEY GR',  161.00,  11
2009,  1,  0.001,  -97.232,  0.000,  0.000,  2,  1.03000,  -46.2567,  'IOWA PAR',  161.00,  11
2013,  2,  1.174,  -11.491,  0.000,  0.000,  2,  1.04250,  -35.8492,  'PANHANDL',  18.000,  10
2015,  1,  0.000,  0.000,  0.000,  0.000,  2,  1.02119,  -56.8652,  'FORESTBU',  161.00,  11
2016,  1,  0.000,  0.000,  0.000,  0.000,  2,  1.02585,  -57.8213,  'SHERMAN ',  161.00,  11
2019,  2,  -6.127,  28.109,  0.000,  0.000,  2,  1.04000,  -33.5862,  'PANHANDL',  20.000,  10
2020,  1,  0.000,  0.000,  0.000,  0.000,  2,  1.00998,  -46.5140,  'WICHITA ',  161.00,  11
2021,  1,  0.000,  0.000,  0.000,  0.000,  2,  1.02956,  -53.4903,  'PARIS 2 ',  500.00,  11
2022,  1,  0.000,  0.000,  0.000,  0.000,  2,  1.02607,  -54.8892,  'PARIS 2 ',  161.00,  11
2023,  2,  0.000,  0.000,  0.000,  0.000,  2,  1.02956,  -53.4903,  'PARIS 2 ',  13.800,  11
2024,  2,  0.000,  0.000,  0.000,  0.000,  2,  1.02529,  -52.8285,  'PARIS 2 ',  13.800,  11
2025,  1,  0.000,  0.000,  0.000,  0.000,  2,  1.00780,  -46.2202,  'WICHITA ',  161.00,  11
2027,  1,  0.000,  0.000,  0.000,  0.000,  2,  1.02123,  -56.1095,  'DEPORT 0',  161.00,  11
2028,  1,  0.000,  0.000,  0.000,  0.000,  2,  1.01174,  -47.8898,  'WICHITA ',  161.00,  11
2030,  1,  0.000,  0.000,  0.000,  0.000,  2,  1.01341,  -57.4049,  'BONHAM 0',  161.00,  11
2032,  1,  0.000,  0.000,  0.000,  0.000,  2,  1.02538,  -54.9771,  'ARTHUR C',  161.00,  11
2033,  1,  0.000,  0.000,  0.000,  0.000,  2,  1.00497,  -58.9302,  'LEONARD ',  161.00,  11
2034,  1,  0.000,  0.000,  0.000,  0.000,  2,  1.02765,  -57.5395,  'GORDONVI',  161.00,  11
2036,  1,  0.000,  0.000,  0.000,  0.000,  2,  1.01212,  -46.2307,  'WICHITA ',  161.00,  11
2037,  1,  0.000,  0.000,  0.000,  0.000,  2,  1.02814,  -56.8707,  'LINDSAY ',  161.00,  11
2038,  1,  0.000,  0.000,  0.000,  0.000,  2,  1.02504,  -55.5743,  'ECTOR 0 ',  161.00,  11
2039,  1,  0.000,  0.000,  0.000,  0.000,  2,  1.00761,  -56.0299,  'SUNSET 0',  161.00,  11
2040,  1,  0.000,  0.000,  0.000,  0.000,  2,  1.02574,  -55.3783,  'CLARKSVI',  161.00,  11
2043,  1,  0.000,  0.000,  0.000,  0.000,  2,  1.02689,  -57.6696,  'SADLER 0',  161.00,  11
2044,  1,  0.000,  0.000,  0.000,  0.000,  2,  1.02788,  -56.4990,  'WHITESBO',  161.00,  11
2045,  1,  0.000,  0.000,  0.000,  0.000,  2,  1.00989,  -46.8432,  'SHEPPARD',  161.00,  11
2046,  1,  0.000,  0.000,  0.000,  0.000,  2,  1.02852,  -57.3730,  'POTTSBOR',  161.00,  11
2047,  1,  0.000,  0.000,  0.000,  0.000,  2,  1.02808,  -55.3351,  'BELLS 0 ',  161.00,  11
2049,  1,  -6.021,  2.064,  0.000,  0.000,  2,  1.02511,  -42.0164,  'ELECTRA ',  161.00,  10
2050,  1,  0.000,  0.000,  0.000,  0.000,  2,  1.00548,  -58.6278,  'PATTONVI',  161.00,  11
2051,  1,  0.000,  0.000,  0.000,  0.000,  2,  1.01012,  -52.1121,  'HENRIETT',  161.00,  11
2053,  1,  0.000,  0.000,  0.000,  0.000,  2,  1.00813,  -54.7710,  'BOWIE 0 ',  161.00,  11
2054,  1,  0.000,  0.000,  0.000,  0.000,  2,  1.01091,  -45.3791,  'WICHITA ',  500.00,  11
2055,  1,  0.000,  0.000,  0.000,  0.000,  2,  1.01083,  -45.9423,  'WICHITA ',  161.00,  11
2056,  2,  0.000,  0.000,  0.000,  0.000,  2,  1.01091,  -45.3791,  'WICHITA ',  18.000,  11
2057,  3,  0.000,  0.000,  0.000,  0.000,  2,  0.99000,  -43.8152,  'WICHITA ',  18.000,  11
2059,  2,  2.180,  -0.422,  0.000,  0.000,  2,  1.02737,  -31.1152,  'WHITE DE',  13.800,  10
2060,  1,  0.000,  0.000,  0.000,  0.000,  2,  1.00791,  -57.6594,  'ROXTON 0',  161.00,  11
2062,  2,  -1.944,  -4.893,  0.000,  0.000,  2,  1.02000,  -36.3854,  'VERNON 1',  18.000,  10
2063,  1,  0.000,  -30.045,  0.000,  0.000,  2,  1.03000,  -57.0915,  'DENISON ',  161.00,  11
2064,  1,  0.000,  0.000,  0.000,  0.000,  2,  1.01712,  -56.2196,  'SUMNER 0',  161.00,  11
2065,  1,  0.000,  -52.806,  0.000,  0.000,  2,  1.03000,  -57.4160,  'GAINESVI',  161.00,  11
2067,  1,  0.000,  0.000,  0.000,  0.000,  2,  1.00590,  -46.3633,  'WICHITA ',  161.00,  11
2068,  1,  0.000,  0.000,  0.000,  0.000,  2,  1.00750,  -45.8088,  'WINDTHOR',  161.00,  11
2069,  1,  0.000,  -34.613,  0.000,  0.000,  2,  1.03000,  -57.4087,  'HOWE 0  ',  161.00,  11
2070,  1,  0.000,  0.000,  0.000,  0.000,  2,  1.00877,  -45.6528,  'ARCHER 2',  161.00,  11
2071,  1,  -26.584,  16.505,  0.000,  0.000,  2,  0.99957,  -44.7784,  'ARCHER 2',  18.000,  11
2072,  1,  0.000,  0.000,  0.000,  0.000,  2,  1.02915,  -56.3743,  'COLLINSV',  161.00,  11
2077,  1,  0.000,  0.000,  0.000,  0.000,  2,  1.02712,  -56.0287,  'MUENSTER',  161.00,  11
2078,  1,  -19.939,  10.668,  0.000,  0.000,  2,  1.01994,  -55.2385,  'MUENSTER',  13.800,  11
2080,  1,  0.000,  0.000,  0.000,  0.000,  2,  1.01295,  -54.0921,  'NOCONA 0',  161.00,  11
2081,  1,  0.000,  0.000,  0.000,  0.000,  2,  1.01990,  -56.7789,  'DODD CIT',  161.00,  11
2082,  1,  0.000,  0.000,  0.000,  0.000,  2,  1.01502,  -46.3904,  'WICHITA ',  161.00,  11
2083,  2,  0.000,  0.000,  0.000,  0.000,  2,  1.01502,  -46.3904,  'WICHITA ',  20.000,  11
2084,  2,  0.000,  0.000,  0.000,  0.000,  2,  1.01502,  -46.3904,  'WICHITA ',  20.000,  11
2085,  2,  0.000,  0.000,  0.000,  0.000,  2,  1.01502,  -46.3904,  'WICHITA ',  20.000,  11
2086,  1,  0.000,  0.000,  0.000,  0.000,  2,  1.00989,  -55.3008,  'MONTAGUE',  161.00,  11
2088,  1,  0.000,  0.000,  0.000,  0.000,  2,  1.00774,  -45.7147,  'ARCHER 1',  161.00,  11
2089,  1,  -11.981,  6.749,  0.000,  0.000,  2,  0.99957,  -44.8598,  'ARCHER 1',  24.000,  11
2090,  1,  0.000,  0.000,  0.000,  0.000,  2,  1.01938,  -56.7143,  'ANNONA 0',  161.00,  11
2092,  1,  0.000,  0.000,  0.000,  0.000,  2,  1.02854,  -56.2323,  'DENISON ',  161.00,  11
2100,  2,  6.513,  -0.798,  0.000,  0.000,  2,  1.02116,  -29.6689,  'RALLS 1 ',  18.000,  10
2101,  1,  0.000,  0.000,  0.000,  0.000,  2,  1.02765,  -53.7888,  'SHERMAN ',  500.00,  11
2102,  1,  0.000,  0.000,  0.000,  0.000,  2,  1.02853,  -54.6896,  'SHERMAN ',  161.00,  11
2103,  2,  0.000,  0.000,  0.000,  0.000,  2,  1.02412,  -53.2382,  'SHERMAN ',  20.000,  11
2104,  2,  0.000,  0.000,  0.000,  0.000,  2,  1.02297,  -53.0672,  'SHERMAN ',  20.000,  11
2105,  2,  0.000,  0.000,  0.000,  0.000,  2,  1.02034,  -52.6439,  'SHERMAN ',  20.000,  11
2106,  1,  0.000,  0.000,  0.000,  0.000,  2,  1.00824,  -58.5756,  'WHITEWRI',  161.00,  11
2107,  1,  0.000,  0.000,  0.000,  0.000,  2,  1.02644,  -55.1160,  'SHERMAN ',  161.00,  11
2109,  1,  0.000,  0.000,  0.000,  0.000,  2,  1.02048,  -47.1444,  'BURKBURN',  161.00,  11
2110,  1,  0.000,  -36.139,  0.000,  0.000,  2,  1.03000,  -56.4267,  'MUENSTER',  161.00,  11
2111,  1,  0.000,  0.000,  0.000,  0.000,  2,  1.01821,  -47.4699,  'ARCHER C',  161.00,  11
2112,  1,  0.000,  0.000,  0.000,  0.000,  2,  1.01079,  -49.2065,  'PETROLIA',  161.00,  11
2113,  1,  0.000,  0.000,  0.000,  0.000,  2,  1.02982,  -53.4426,  'PARIS 1 ',  500.00,  11
2114,  1,  0.000,  0.000,  0.000,  0.000,  2,  1.02884,  -54.1460,  'PARIS 1 ',  161.00,  11
2115,  2,  0.000,  0.000,  0.000,  0.000,  2,  1.02232,  -52.2750,  'PARIS 1 ',  13.800,  11
2116,  2,  0.000,  0.000,  0.000,  0.000,  2,  1.02591,  -52.8377,  'PARIS 1 ',  13.800,  11
2117,  2,  0.000,  0.000,  0.000,  0.000,  2,  1.02083,  -52.0938,  'PARIS 1 ',  13.800,  11
2118,  2,  0.000,  0.000,  0.000,  0.000,  2,  1.01991,  -51.9457,  'PARIS 1 ',  13.800,  11
2119,  2,  0.000,  0.000,  0.000,  0.000,  2,  1.02504,  -52.7055,  'PARIS 1 ',  13.800,  11
2120,  2,  0.000,  0.000,  0.000,  0.000,  2,  1.02036,  -52.0037,  'PARIS 1 ',  13.800,  11
2121,  1,  0.000,  0.000,  0.000,  0.000,  2,  1.02408,  -55.8648,  'BAGWELL ',  161.00,  11
2122,  1,  0.000,  0.000,  0.000,  0.000,  2,  1.02028,  -55.9653,  'TELEPHON',  161.00,  11
2123,  2,  12.521,  -6.175,  0.000,  0.000,  2,  1.03609,  -34.0524,  'PANHANDL',  161.00,  10
2124,  1,  0.000,  0.000,  0.000,  0.000,  2,  1.00288,  -59.3419,  'VAN ALST',  161.00,  11
2125,  1,  0.000,  0.000,  0.000,  0.000,  2,  1.02152,  -56.4472,  'TIOGA 0 ',  161.00,  11
2126,  1,  0.000,  0.000,  0.000,  0.000,  2,  1.02562,  -57.5839,  'VALLEY V',  161.00,  11
2127,  2,  13.640,  138.409,  0.000,  0.000,  2,  1.05137,  -37.0814,  'MIAMI 0 ',  500.00,  10
2129,  1,  0.000,  0.000,  0.000,  0.000,  2,  1.01070,  -58.4368,  'TRENTON ',  161.00,  11
2133,  1,  0.000,  0.000,  0.000,  0.000,  2,  1.02431,  -55.6779,  'SAINT JO',  161.00,  11
3017,  2,  44.624,  4.996,  0.000,  0.000,  3,  1.01000,  -19.8018,  'BLACKWEL',  18.000,  27
3020,  2,  145.651,  -0.937,  0.000,  0.000,  3,  1.03000,  -29.6357,  'CHRISTOV',  13.800,  27
3028,  2,  17.478,  -7.202,  0.000,  0.000,  3,  1.04000,  -40.1146,  'ABILENE ',  18.000,  27
3034,  2,  41.300,  0.218,  0.000,  0.000,  3,  1.03000,  -11.9020,  'SNYDER 1',  22.000,  27
3039,  2,  25.101,  -14.404,  0.000,  0.000,  3,  1.04000,  -26.1099,  'ROSCOE 2',  13.800,  27
3045,  2,  1.634,  -7.483,  0.000,  0.000,  3,  1.04000,  -27.0652,  'SILVER 4',  13.800,  27
3048,  2,  362.294,  -739.011,  0.000,  0.000,  3,  1.03553,  -43.6644,  'ROSCOE 5',  500.00,  27
3055,  2,  36.601,  -10.504,  0.000,  0.000,  3,  1.04000,  -28.1613,  'WINGATE ',  13.800,  27
3056,  2,  22.938,  -4.368,  0.000,  0.000,  3,  1.04000,  -25.8472,  'WINGATE ',  13.800,  27
3057,  2,  23.166,  -4.759,  0.000,  0.000,  3,  1.04000,  -25.9944,  'WINGATE ',  13.800,  27
3060,  2,  20.485,  0.495,  0.000,  0.000,  3,  1.04000,  -20.8888,  'STERLING',  18.000,  27
3061,  2,  21.668,  0.529,  0.000,  0.000,  3,  1.04000,  -22.8359,  'STERLING',  18.000,  27
3062,  2,  24.690,  -5.415,  0.000,  0.000,  3,  1.04000,  -25.2399,  'STERLING',  18.000,  27
3063,  2,  16.168,  -1.220,  0.000,  0.000,  3,  1.04000,  -24.2049,  'STERLING',  18.000,  27
3065,  2,  7.998,  -8.655,  0.000,  0.000,  3,  1.01287,  -17.7169,  'ROSCOE 4',  18.000,  27
3068,  2,  42.210,  1.880,  0.000,  0.000,  3,  1.04000,  -19.9222,  'TRENT 1 ',  20.000,  27
3071,  2,  30.449,  -2.082,  0.000,  0.000,  3,  1.00699,  -19.5891,  'NOLAN 1 ',  24.000,  27
3074,  2,  72.283,  -12.159,  0.000,  0.000,  3,  1.00000,  -73.4992,  'BRACKETT',  13.800,  28
3081,  2,  18.093,  -6.335,  0.000,  0.000,  3,  1.04000,  -23.3062,  'HERMLEIG',  20.000,  27
3084,  2,  22.559,  -11.993,  0.000,  0.000,  3,  1.00000,  -22.4460,  'MERKEL 1',  13.800,  27
3086,  2,  19.446,  -2.602,  0.000,  0.000,  3,  1.00000,  -16.1598,  'LORAINE ',  13.200,  27
3087,  2,  21.429,  -2.486,  0.000,  0.000,  3,  1.00000,  -14.9087,  'LORAINE ',  13.200,  27
3092,  2,  26.098,  -3.087,  0.000,  0.000,  3,  1.04000,  -30.5820,  'ABILENE ',  13.800,  27
3095,  2,  31.082,  8.207,  0.000,  0.000,  3,  1.04000,  -19.8756,  'MERKEL 2',  18.000,  27
3098,  2,  11.953,  -2.391,  0.000,  0.000,  3,  1.04000,  -17.1059,  'FLUVANNA',  13.800,  27
3106,  3,  24.921,  -1.497,  0.000,  0.000,  3,  1.00000,  -58.6258,  'BUCHANAN',  13.200,  28
3110,  2,  11.900,  -1.975,  0.000,  0.000,  3,  1.04000,  -17.7452,  'FLUVANNA',  13.800,  27
3112,  2,  14.002,  -6.344,  0.000,  0.000,  3,  1.00040,  -16.2290,  'STERLING',  18.000,  27
3113,  2,  14.002,  -6.344,  0.000,  0.000,  3,  1.00040,  -16.2290,  'STERLING',  18.000,  27
3117,  2,  51.645,  -4.628,  0.000,  0.000,  3,  1.00000,  -15.7858,  'SYNDER 1',  13.800,  27
3118,  2,  59.219,  -8.480,  0.000,  0.000,  3,  1.00000,  -14.9121,  'SYNDER 2',  13.800,  27
3122,  2,  26.425,  1.028,  0.000,  0.000,  3,  1.00000,  -11.4079,  'ROSCOE 1',  18.000,  27
3127,  2,  18.775,  -3.274,  0.000,  0.000,  3,  1.02088,  -19.4033,  'SWEETWAT',  115.00,  27
3129,  2,  33.415,  -56.702,  0.000,  0.000,  3,  1.02798,  -20.1261,  'ROSCOE 3',  115.00,  27
3131,  2,  153.806,  -21.067,  0.000,  0.000,  3,  1.02000,  -24.4825,  'TUSOCOLA',  115.00,  27
3137,  2,  117.249,  -27.271,  0.000,  0.000,  3,  1.02585,  -25.9938,  'SWEETWAT',  115.00,  27
3141,  2,  48.408,  -23.693,  0.000,  0.000,  3,  1.02231,  -20.7289,  'SWEETWAT',  115.00,  27
4010,  2,  56.152,  -5.121,  0.000,  0.000,  4,  1.03000,  -82.2542,  'SARITA 3',  20.000,  21
4026,  2,  164.739,  -10.761,  0.000,  0.000,  4,  1.03000,  -68.8840,  'CHRISTIN',  13.800,  20
4030,  3,  209.349,  -19.183,  0.000,  0.000,  4,  1.01000,  -63.7471,  'FANNIN 2',  13.800,  21
4047,  2,  81.953,  -1.642,  0.000,  0.000,  4,  1.02000,  -89.8241,  'FALCON H',  13.800,  19
4050,  2,  20.847,  -7.112,  0.000,  0.000,  4,  1.01099,  -93.4937,  'SEBASTIA',  13.800,  19
4058,  2,  25.344,  2.980,  0.000,  0.000,  4,  1.03000,  -80.2798,  'GREGORY ',  13.800,  21
4059,  2,  29.689,  2.948,  0.000,  0.000,  4,  1.03000,  -80.4934,  'GREGORY ',  13.800,  21
4060,  2,  20.186,  2.007,  0.000,  0.000,  4,  1.03000,  -79.6745,  'GREGORY ',  13.800,  21
4061,  2,  26.038,  3.039,  0.000,  0.000,  4,  1.03000,  -80.0362,  'GREGORY ',  13.800,  21
4062,  2,  23.736,  2.015,  0.000,  0.000,  4,  1.03000,  -79.6356,  'GREGORY ',  13.800,  21
4063,  2,  25.608,  3.322,  0.000,  0.000,  4,  1.03000,  -80.0063,  'GREGORY ',  13.800,  21
4082,  2,  26.089,  0.182,  0.000,  0.000,  4,  1.04000,  -83.6884,  'CORPUS C',  13.800,  21
4083,  2,  27.970,  0.155,  0.000,  0.000,  4,  1.04000,  -83.8432,  'CORPUS C',  13.800,  21
4084,  2,  41.630,  -2.697,  0.000,  0.000,  4,  1.04000,  -84.6644,  'CORPUS C',  13.800,  21
4085,  2,  52.600,  -3.104,  0.000,  0.000,  4,  1.04000,  -83.2875,  'CORPUS C',  13.800,  21
4105,  2,  97.699,  4.509,  0.000,  0.000,  4,  1.01000,  -85.0680,  'TAFT 2 1',  18.000,  21
4115,  2,  98.355,  -1.090,  0.000,  0.000,  4,  1.04000,  -82.6111,  'LAREDO 1',  13.800,  20
4116,  2,  93.591,  -1.883,  0.000,  0.000,  4,  1.04000,  -82.5590,  'LAREDO 1',  13.800,  20
4142,  2,  112.017,  -6.844,  0.000,  0.000,  4,  1.04000,  -84.5136,  'SARITA 1',  13.800,  21
4153,  2,  273.744,  -18.149,  0.000,  0.000,  4,  1.04000,  -86.6847,  'ARMSTRON',  18.000,  21
4160,  2,  103.615,  13.227,  0.000,  0.000,  4,  1.03000,  -82.7604,  'CORPUS C',  13.800,  21
4161,  2,  45.893,  6.232,  0.000,  0.000,  4,  1.03000,  -81.6286,  'CORPUS C',  13.800,  21
4162,  2,  46.426,  5.323,  0.000,  0.000,  4,  1.03000,  -81.6530,  'CORPUS C',  13.800,  21
4166,  2,  47.609,  -4.775,  0.000,  0.000,  4,  1.01389,  -81.0717,  'SARITA 2',  13.800,  21
4177,  2,  85.413,  -2.615,  0.000,  0.000,  4,  1.04000,  -77.3306,  'BRUNI 1 ',  13.800,  20
4181,  2,  140.765,  1.682,  0.000,  0.000,  4,  1.02369,  -80.6803,  'TAFT 1 0',  230.00,  21
4183,  2,  326.593,  -35.563,  0.000,  0.000,  4,  1.02793,  -90.3697,  'SAN PERL',  230.00,  19
4192,  2,  739.011,  2.777,  0.000,  0.000,  4,  1.02000,  -93.5395,  'BROWNSVI',  230.00,  19
4194,  2,  681.408,  -93.352,  0.000,  0.000,  4,  1.02000,  -97.1704,  'SEBASTIA',  115.00,  19
4195,  2,  433.852,  -142.367,  0.000,  0.000,  4,  1.02899,  -78.1832,  'OILTON 0',  500.00,  20
5003,  1,  0.000,  0.000,  0.000,  0.000,  5,  1.02564,  -57.5200,  'GARLAND ',  161.00,  16
5004,  1,  0.000,  0.000,  0.000,  0.000,  5,  0.96198,  -65.3435,  'KERENS 0',  161.00,  14
5006,  1,  0.000,  0.000,  0.000,  0.000,  5,  1.02962,  -57.1286,  'DALLAS 2',  161.00,  16
5007,  1,  0.000,  0.000,  0.000,  0.000,  5,  1.02669,  -55.7444,  'DENTON 4',  161.00,  17
5009,  1,  0.000,  0.000,  0.000,  0.000,  5,  1.02803,  -57.9543,  'DALLAS 2',  161.00,  16
5010,  1,  0.000,  0.000,  0.000,  0.000,  5,  1.02915,  -57.4503,  'PLANO 2 ',  161.00,  16
5011,  1,  96.415,  9.969,  0.000,  0.000,  5,  0.95299,  -68.1174,  'THORNTON',  161.00,  13
5012,  1,  0.000,  0.000,  0.000,  0.000,  5,  1.02492,  -56.0636,  'DENTON 5',  161.00,  17
5014,  1,  0.000,  0.000,  0.000,  0.000,  5,  1.01332,  -56.7776,  'DECATUR ',  161.00,  17
5015,  1,  0.000,  0.000,  0.000,  0.000,  5,  1.02861,  -53.6671,  'KELLER 2',  500.00,  17
...
 0 /End of Bus data, Begin Generator data
1004,  '1',  142.227,  -30.380,  44.940,  -30.380,  1.01000,  0,  253.200,  0.00000,  1.00000,  0.00000,  0.00000,  1.00000,  1,  100.0,  211.000,  63.300
1009,  '1',  55.605,  -11.880,  17.570,  -11.880,  1.00000,  0,  99.000,  0.00000,  1.00000,  0.00000,  0.00000,  1.00000,  1,  100.0,  82.500,  24.750
1021,  '1',  134.479,  -28.730,  42.490,  -28.730,  1.00000,  0,  239.400,  0.00000,  1.00000,  0.00000,  0.00000,  1.00000,  1,  100.0,  199.500,  59.850
1023,  '1',  121.331,  -4.475,  38.340,  -25.920,  1.01000,  0,  216.000,  0.00000,  1.00000,  0.00000,  0.00000,  1.00000,  1,  100.0,  180.000,  54.000
1026,  '1',  83.718,  -17.880,  26.450,  -17.880,  1.00000,  0,  149.040,  0.00000,  1.00000,  0.00000,  0.00000,  1.00000,  1,  100.0,  124.200,  37.260
1033,  '1',  187.389,  -5.190,  59.210,  -40.030,  1.00000,  0,  333.600,  0.00000,  1.00000,  0.00000,  0.00000,  1.00000,  1,  100.0,  278.000,  83.400
1035,  '1',  60.665,  -12.960,  19.170,  -12.960,  1.00000,  0,  108.000,  0.00000,  1.00000,  0.00000,  0.00000,  1.00000,  1,  100.0,  90.000,  27.000
1039,  '1',  99.428,  -18.639,  31.420,  -21.240,  1.00000,  0,  177.000,  0.00000,  1.00000,  0.00000,  0.00000,  1.00000,  1,  100.0,  147.500,  44.250
1042,  '1',  109.557,  -7.202,  25.960,  -17.550,  1.00000,  0,  146.280,  0.00000,  1.00000,  0.00000,  0.00000,  1.00000,  1,  100.0,  121.900,  36.570
1043,  '1',  39.635,  -8.349,  12.520,  -8.470,  1.00000,  0,  70.560,  0.00000,  1.00000,  0.00000,  0.00000,  1.00000,  1,  100.0,  58.800,  17.640
1048,  '1',  97.560,  -13.791,  165.530,  -36.100,  1.00000,  0,  390.240,  0.00000,  0.10170,  0.00000,  0.00000,  1.00000,  1,  100.0,  325.200,  97.560
1049,  '1',  97.560,  -3.377,  165.530,  -36.100,  1.00000,  0,  390.240,  0.00000,  0.13490,  0.00000,  0.00000,  1.00000,  1,  100.0,  325.200,  97.560
1053,  '1',  53.640,  -19.850,  91.010,  -19.850,  1.00000,  0,  214.560,  0.00000,  0.16870,  0.00000,  0.00000,  1.00000,  1,  100.0,  178.800,  53.640
1057,  '1',  107.850,  -17.280,  25.560,  -17.280,  1.00000,  0,  144.000,  0.00000,  1.00000,  0.00000,  0.00000,  1.00000,  1,  100.0,  120.000,  36.000
1066,  '1',  96.058,  -7.588,  30.350,  -20.520,  1.00000,  0,  171.000,  0.00000,  1.00000,  0.00000,  0.00000,  1.00000,  1,  100.0,  142.500,  42.750
1070,  '1',  108.191,  21.419,  34.190,  -23.110,  1.04000,  0,  192.600,  0.00000,  1.00000,  0.00000,  0.00000,  1.00000,  1,  100.0,  160.500,  48.150
1072,  '1',  19.637,  1.678,  97.800,  -21.330,  1.01000,  0,  230.560,  0.00000,  0.30820,  0.00000,  0.00000,  1.00000,  1,  100.0,  192.130,  57.640
1073,  '1',  57.640,  -1.826,  97.800,  -21.330,  1.01000,  0,  230.560,  0.00000,  0.19480,  0.00000,  0.00000,  1.00000,  1,  100.0,  192.130,  57.640
1074,  '1',  57.640,  1.248,  97.800,  -21.330,  1.01000,  0,  230.560,  0.00000,  0.20960,  0.00000,  0.00000,  1.00000,  1,  100.0,  192.130,  57.640
1075,  '1',  57.640,  1.815,  97.800,  -21.330,  1.01000,  0,  230.560,  0.00000,  0.12370,  0.00000,  0.00000,  1.00000,  1,  100.0,  192.130,  57.640
1076,  '1',  57.640,  3.891,  97.800,  -21.330,  1.01000,  0,  230.560,  0.00000,  0.10660,  0.00000,  0.00000,  1.00000,  1,  100.0,  192.130,  57.640
1077,  '1',  57.640,  0.841,  97.800,  -21.330,  1.01000,  0,  230.560,  0.00000,  0.15380,  0.00000,  0.00000,  1.00000,  1,  100.0,  192.130,  57.640
1081,  '1',  85.950,  12.470,  145.830,  -31.800,  1.01000,  0,  343.800,  0.00000,  0.14960,  0.00000,  0.00000,  1.00000,  1,  100.0,  286.500,  85.950
1082,  '1',  101.109,  -21.600,  31.950,  -21.600,  1.00000,  0,  180.000,  0.00000,  1.00000,  0.00000,  0.00000,  1.00000,  1,  100.0,  150.000,  45.000
1084,  '1',  77.849,  24.600,  24.600,  -16.630,  1.04000,  0,  138.600,  0.00000,  1.00000,  0.00000,  0.00000,  1.00000,  1,  100.0,  115.500,  34.650
1088,  '1',  50.554,  -2.277,  15.970,  -10.800,  1.00000,  0,  90.000,  0.00000,  1.00000,  0.00000,  0.00000,  1.00000,  1,  100.0,  75.000,  22.500
1090,  '1',  48.531,  34.864,  40.150,  -27.140,  1.02000,  0,  226.200,  0.00000,  1.00000,  0.00000,  0.00000,  1.00000,  1,  100.0,  188.500,  56.550
2004,  '1',  117.540,  -43.490,  199.430,  -43.490,  1.02000,  0,  470.160,  0.00000,  0.10640,  0.00000,  0.00000,  1.00000,  1,  100.0,  391.800,  117.540
2005,  '1',  117.540,  -42.199,  199.430,  -43.490,  1.02000,  0,  470.160,  0.00000,  0.22750,  0.00000,  0.00000,  1.00000,  1,  100.0,  391.800,  117.540
2006,  '1',  117.540,  -26.085,  199.430,  -43.490,  1.02000,  0,  470.160,  0.00000,  0.20040,  0.00000,  0.00000,  1.00000,  1,  100.0,  391.800,  117.540
2013,  '1',  38.032,  -28.890,  42.730,  -28.890,  1.00000,  0,  240.720,  0.00000,  1.00000,  0.00000,  0.00000,  1.00000,  1,  100.0,  200.600,  60.180
2019,  '1',  190.133,  -3.383,  46.430,  -31.390,  1.04000,  0,  261.600,  0.00000,  1.00000,  0.00000,  0.00000,  1.00000,  1,  100.0,  218.000,  65.400
2023,  '1',  0.000,  15.439,  42.420,  -9.250,  1.02000,  0,  100.000,  0.00000,  0.29440,  0.00000,  0.00000,  1.00000,  0,  100.0,  83.330,  25.000
2024,  '1',  50.000,  -18.500,  84.830,  -18.500,  1.02000,  0,  200.000,  0.00000,  0.15080,  0.00000,  0.00000,  1.00000,  1,  100.0,  166.670,  50.000
2056,  '1',  0.000,  0.000,  2.800,  -0.730,  0.99000,  0,  7.200,  0.00000,  0.24920,  0.00000,  0.00000,  1.00000,  0,  100.0,  6.000,  1.800
2057,  '1',  203.780,  -157.712,  335.520,  -87.840,  0.99000,  0,  864.000,  0.00000,  0.17700,  0.00000,  0.00000,  1.00000,  1,  100.0,  720.000,  216.000
2059,  '1',  52.330,  -11.520,  17.040,  -11.520,  1.00000,  0,  96.000,  0.00000,  1.00000,  0.00000,  0.00000,  1.00000,  1,  100.0,  80.000,  24.000
2062,  '1',  98.313,  -15.729,  28.840,  -19.500,  1.02000,  0,  162.480,  0.00000,  1.00000,  0.00000,  0.00000,  1.00000,  1,  100.0,  135.400,  40.620
2083,  '1',  0.000,  10.080,  10.180,  -2.220,  1.02000,  0,  24.000,  0.00000,  0.16410,  0.00000,  0.00000,  1.00000,  0,  100.0,  20.000,  6.000
2084,  '1',  0.000,  0.000,  10.180,  -2.220,  1.02000,  0,  24.000,  0.00000,  0.23120,  0.00000,  0.00000,  1.00000,  0,  100.0,  20.000,  6.000
2085,  '1',  0.000,  0.000,  20.360,  -4.440,  1.02000,  0,  48.000,  0.00000,  0.22690,  0.00000,  0.00000,  1.00000,  0,  100.0,  40.000,  12.000
2100,  '1',  65.560,  -21.600,  31.950,  -21.600,  1.02000,  0,  180.000,  0.00000,  1.00000,  0.00000,  0.00000,  1.00000,  1,  100.0,  150.000,  45.000
2103,  '1',  80.320,  -29.720,  136.280,  -29.720,  1.00000,  0,  321.280,  0.00000,  0.33430,  0.00000,  0.00000,  1.00000,  1,  100.0,  267.730,  80.320
2104,  '1',  80.320,  -29.720,  136.280,  -29.720,  1.00000,  0,  321.280,  0.00000,  0.31470,  0.00000,  0.00000,  1.00000,  1,  100.0,  267.730,  80.320
2105,  '1',  80.320,  -29.720,  136.280,  -29.720,  1.00000,  0,  321.280,  0.00000,  0.14160,  0.00000,  0.00000,  1.00000,  1,  100.0,  267.730,  80.320
2115,  '1',  55.410,  -20.500,  94.020,  -20.500,  1.00000,  0,  221.660,  0.00000,  0.14250,  0.00000,  0.00000,  1.00000,  1,  100.0,  184.720,  55.410
2116,  '1',  55.410,  -20.500,  94.020,  -20.500,  1.00000,  0,  221.660,  0.00000,  0.18690,  0.00000,  0.00000,  1.00000,  1,  100.0,  184.720,  55.410
2117,  '1',  55.410,  -20.500,  94.020,  -20.500,  1.00000,  0,  221.660,  0.00000,  0.32540,  0.00000,  0.00000,  1.00000,  1,  100.0,  184.720,  55.410
2118,  '1',  55.410,  -20.500,  94.020,  -20.500,  1.00000,  0,  221.660,  0.00000,  0.10610,  0.00000,  0.00000,  1.00000,  1,  100.0,  184.720,  55.410
2119,  '1',  55.410,  -20.500,  94.020,  -20.500,  1.00000,  0,  221.660,  0.00000,  0.13600,  0.00000,  0.00000,  1.00000,  1,  100.0,  184.720,  55.410
2120,  '1',  55.410,  -20.500,  94.020,  -20.500,  1.01000,  0,  221.660,  0.00000,  0.20680,  0.00000,  0.00000,  1.00000,  1,  100.0,  184.720,  55.410
2123,  '1',  47.707,  -26.160,  38.700,  -26.160,  1.00000,  0,  218.040,  0.00000,  1.00000,  0.00000,  0.00000,  1.00000,  1,  100.0,  181.700,  54.510
2127,  '1',  98.578,  -41.560,  61.470,  -41.560,  1.04000,  0,  346.320,  0.00000,  1.00000,  0.00000,  0.00000,  1.00000,  1,  100.0,  288.600,  86.580
3017,  '1',  114.258,  -6.615,  36.100,  -24.410,  1.01000,  0,  203.400,  0.00000,  1.00000,  0.00000,  0.00000,  1.00000,  1,  100.0,  169.500,  50.850
3020,  '1',  101.109,  7.221,  31.950,  -21.600,  1.03000,  0,  180.000,  0.00000,  1.00000,  0.00000,  0.00000,  1.00000,  1,  100.0,  150.000,  45.000
3028,  '1',  35.445,  25.307,  42.600,  -28.800,  1.04000,  0,  240.000,  0.00000,  1.00000,  0.00000,  0.00000,  1.00000,  1,  100.0,  200.000,  60.000
3034,  '1',  87.960,  9.251,  27.800,  -18.790,  1.03000,  0,  156.600,  0.00000,  1.00000,  0.00000,  0.00000,  1.00000,  1,  100.0,  130.500,  39.150
3039,  '1',  140.878,  38.284,  44.520,  -30.100,  1.04000,  0,  250.800,  0.00000,  1.00000,  0.00000,  0.00000,  1.00000,  1,  100.0,  209.000,  62.700
3045,  '1',  134.100,  23.420,  227.520,  -49.620,  1.04000,  0,  536.400,  0.00000,  0.14470,  0.00000,  0.00000,  1.00000,  1,  100.0,  447.000,  134.100
3048,  '1',  162.448,  51.330,  51.330,  -34.700,  1.04000,  0,  289.200,  0.00000,  1.00000,  0.00000,  0.00000,  1.00000,  1,  100.0,  241.000,  72.300
3055,  '1',  165.261,  30.091,  52.220,  -35.300,  1.04000,  0,  294.200,  0.00000,  1.00000,  0.00000,  0.00000,  1.00000,  1,  100.0,  245.170,  73.550
3056,  '1',  165.261,  20.012,  52.220,  -35.300,  1.04000,  0,  294.200,  0.00000,  1.00000,  0.00000,  0.00000,  1.00000,  1,  100.0,  245.170,  73.550
3057,  '1',  165.261,  18.557,  52.220,  -35.300,  1.04000,  0,  294.200,  0.00000,  1.00000,  0.00000,  0.00000,  1.00000,  1,  100.0,  245.170,  73.550
3060,  '1',  111.642,  10.780,  35.280,  -23.850,  1.04000,  0,  198.750,  0.00000,  1.00000,  0.00000,  0.00000,  1.00000,  1,  100.0,  165.630,  49.690
3061,  '1',  111.642,  11.550,  35.280,  -23.850,  1.04000,  0,  198.750,  0.00000,  1.00000,  0.00000,  0.00000,  1.00000,  1,  100.0,  165.630,  49.690
3062,  '1',  111.642,  16.354,  35.280,  -23.850,  1.04000,  0,  198.750,  0.00000,  1.00000,  0.00000,  0.00000,  1.00000,  1,  100.0,  165.630,  49.690
3063,  '1',  111.642,  12.370,  35.280,  -23.850,  1.04000,  0,  198.750,  0.00000,  1.00000,  0.00000,  0.00000,  1.00000,  1,  100.0,  165.630,  49.690
3065,  '1',  54.257,  -11.590,  17.150,  -11.590,  1.00000,  0,  96.600,  0.00000,  1.00000,  0.00000,  0.00000,  1.00000,  1,  100.0,  80.500,  24.150
3068,  '1',  101.109,  20.356,  31.950,  -21.600,  1.04000,  0,  180.000,  0.00000,  1.00000,  0.00000,  0.00000,  1.00000,  1,  100.0,  150.000,  45.000
3071,  '1',  114.725,  -24.510,  36.250,  -24.510,  1.00000,  0,  204.240,  0.00000,  1.00000,  0.00000,  0.00000,  1.00000,  1,  100.0,  170.200,  51.060
3074,  '1',  67.271,  -13.955,  21.260,  -14.370,  1.00000,  0,  119.760,  0.00000,  1.00000,  0.00000,  0.00000,  1.00000,  1,  100.0,  99.800,  29.940
3081,  '1',  167.841,  26.736,  53.040,  -35.860,  1.04000,  0,  298.800,  0.00000,  1.00000,  0.00000,  0.00000,  1.00000,  1,  100.0,  249.000,  74.700
3084,  '1',  156.714,  -16.022,  49.520,  -33.480,  1.00000,  0,  279.000,  0.00000,  1.00000,  0.00000,  0.00000,  1.00000,  1,  100.0,  232.500,  69.750
3086,  '1',  50.554,  -9.841,  15.970,  -10.800,  1.00000,  0,  90.000,  0.00000,  1.00000,  0.00000,  0.00000,  1.00000,  1,  100.0,  75.000,  22.500
3087,  '1',  67.406,  -10.216,  15.970,  -10.800,  1.00000,  0,  90.000,  0.00000,  1.00000,  0.00000,  0.00000,  1.00000,  1,  100.0,  75.000,  22.500
3092,  '1',  134.812,  17.040,  42.600,  -28.800,  1.04000,  0,  240.000,  0.00000,  1.00000,  0.00000,  0.00000,  1.00000,  1,  100.0,  200.000,  60.000
3095,  '1',  81.292,  9.591,  25.690,  -17.370,  1.04000,  0,  144.720,  0.00000,  1.00000,  0.00000,  0.00000,  1.00000,  1,  100.0,  120.600,  36.180
3098,  '1',  107.850,  14.830,  34.080,  -23.040,  1.04000,  0,  192.000,  0.00000,  1.00000,  0.00000,  0.00000,  1.00000,  1,  100.0,  160.000,  48.000
3106,  '1',  43.401,  -11.259,  62.477,  -2.690,  1.00000,  0,  65.880,  0.00000,  0.29220,  0.00000,  0.00000,  1.00000,  1,  100.0,  162.800,  0.000
3110,  '1',  56.621,  9.544,  17.890,  -12.100,  1.04000,  0,  100.800,  0.00000,  1.00000,  0.00000,  0.00000,  1.00000,  1,  100.0,  84.000,  25.200
3112,  '1',  50.420,  -10.770,  15.930,  -10.770,  1.00000,  0,  89.760,  0.00000,  1.00000,  0.00000,  0.00000,  1.00000,  1,  100.0,  74.800,  22.440
3113,  '1',  50.420,  -10.770,  15.930,  -10.770,  1.00000,  0,  89.760,  0.00000,  1.00000,  0.00000,  0.00000,  1.00000,  1,  100.0,  74.800,  22.440
3117,  '1',  42.466,  -7.382,  13.420,  -9.070,  1.00000,  0,  75.600,  0.00000,  1.00000,  0.00000,  0.00000,  1.00000,  1,  100.0,  63.000,  18.900
3118,  '1',  80.887,  -11.861,  25.560,  -17.280,  1.00000,  0,  144.000,  0.00000,  1.00000,  0.00000,  0.00000,  1.00000,  1,  100.0,  120.000,  36.000
3122,  '1',  132.790,  -16.451,  41.960,  -28.370,  1.00000,  0,  236.400,  0.00000,  1.00000,  0.00000,  0.00000,  1.00000,  1,  100.0,  197.000,  59.100
3127,  '1',  90.998,  -19.440,  28.760,  -19.440,  1.00000,  0,  162.000,  0.00000,  1.00000,  0.00000,  0.00000,  1.00000,  1,  100.0,  135.000,  40.500
3129,  '1',  85.273,  -18.220,  26.940,  -18.220,  1.00000,  0,  151.800,  0.00000,  1.00000,  0.00000,  0.00000,  1.00000,  1,  100.0,  126.500,  37.950
3131,  '1',  76.843,  -3.031,  24.280,  -16.420,  1.02000,  0,  136.800,  0.00000,  1.00000,  0.00000,  0.00000,  1.00000,  1,  100.0,  114.000,  34.200
3137,  '1',  68.215,  21.560,  21.560,  -14.570,  1.03000,  0,  121.440,  0.00000,  1.00000,  0.00000,  0.00000,  1.00000,  1,  100.0,  101.200,  30.360
3141,  '1',  61.672,  -13.180,  19.490,  -13.180,  1.00000,  0,  109.800,  0.00000,  1.00000,  0.00000,  0.00000,  1.00000,  1,  100.0,  91.500,  27.450
4010,  '1',  135.890,  2.784,  42.940,  -29.030,  1.03000,  0,  241.920,  0.00000,  1.00000,  0.00000,  0.00000,  1.00000,  1,  100.0,  201.600,  60.480
4026,  '1',  123.000,  4.116,  191.060,  -50.020,  1.03000,  0,  492.000,  0.00000,  0.32770,  0.00000,  0.00000,  1.00000,  1,  100.0,  410.000,  123.000
4030,  '1',  274.613,  -25.502,  290.040,  -75.930,  1.01000,  0,  746.880,  0.00000,  0.27970,  0.00000,  0.00000,  1.00000,  1,  100.0,  622.400,  186.720
4047,  '1',  42.588,  3.621,  75.102,  -3.230,  1.02000,  0,  79.200,  0.00000,  0.32270,  0.00000,  0.00000,  1.00000,  1,  100.0,  195.700,  0.000
4050,  '1',  134.812,  -28.800,  42.600,  -28.800,  1.00000,  0,  240.000,  0.00000,  1.00000,  0.00000,  0.00000,  1.00000,  1,  100.0,  200.000,  60.000
4058,  '1',  43.200,  7.488,  73.300,  -15.980,  1.03000,  0,  172.800,  0.00000,  0.13700,  0.00000,  0.00000,  1.00000,  1,  100.0,  144.000,  43.200
4059,  '1',  43.200,  8.141,  73.300,  -15.980,  1.03000,  0,  172.800,  0.00000,  0.15140,  0.00000,  0.00000,  1.00000,  1,  100.0,  144.000,  43.200
4060,  '1',  43.200,  5.179,  73.300,  -15.980,  1.03000,  0,  172.800,  0.00000,  0.13940,  0.00000,  0.00000,  1.00000,  1,  100.0,  144.000,  43.200
4061,  '1',  51.700,  7.496,  87.720,  -19.130,  1.03000,  0,  206.800,  0.00000,  0.21560,  0.00000,  0.00000,  1.00000,  1,  100.0,  172.330,  51.700
4062,  '1',  51.700,  5.320,  87.720,  -19.130,  1.03000,  0,  206.800,  0.00000,  0.25930,  0.00000,  0.00000,  1.00000,  1,  100.0,  172.330,  51.700
4063,  '1',  51.700,  8.027,  87.720,  -19.130,  1.03000,  0,  206.800,  0.00000,  0.14410,  0.00000,  0.00000,  1.00000,  1,  100.0,  172.330,  51.700
4082,  '1',  73.020,  10.831,  123.890,  -27.020,  1.04000,  0,  292.080,  0.00000,  0.13810,  0.00000,  0.00000,  1.00000,  1,  100.0,  243.400,  73.020
4083,  '1',  73.020,  11.709,  123.890,  -27.020,  1.04000,  0,  292.080,  0.00000,  0.15700,  0.00000,  0.00000,  1.00000,  1,  100.0,  243.400,  73.020
4084,  '1',  73.020,  22.073,  123.890,  -27.020,  1.04000,  0,  292.080,  0.00000,  0.19110,  0.00000,  0.00000,  1.00000,  1,  100.0,  243.400,  73.020
4085,  '1',  204.160,  25.450,  179.170,  -39.070,  1.04000,  0,  422.400,  0.00000,  0.31920,  0.00000,  0.00000,  1.00000,  1,  100.0,  352.000,  105.600
4105,  '1',  31.901,  -8.899,  38.340,  -25.920,  1.01000,  0,  216.000,  0.00000,  1.00000,  0.00000,  0.00000,  1.00000,  1,  100.0,  180.000,  54.000
4115,  '1',  39.540,  28.020,  67.090,  -14.630,  1.04000,  0,  158.160,  0.00000,  0.11310,  0.00000,  0.00000,  1.00000,  1,  100.0,  131.800,  39.540
4116,  '1',  39.540,  26.244,  67.090,  -14.630,  1.04000,  0,  158.160,  0.00000,  0.15150,  0.00000,  0.00000,  1.00000,  1,  100.0,  131.800,  39.540
4142,  '1',  126.723,  17.118,  40.040,  -27.070,  1.04000,  0,  225.600,  0.00000,  1.00000,  0.00000,  0.00000,  1.00000,  1,  100.0,  188.000,  56.400
4153,  '1',  190.894,  37.662,  60.320,  -40.780,  1.04000,  0,  339.840,  0.00000,  1.00000,  0.00000,  0.00000,  1.00000,  1,  100.0,  283.200,  84.960
4160,  '1',  59.330,  21.555,  100.660,  -21.950,  1.03000,  0,  237.320,  0.00000,  0.18820,  0.00000,  0.00000,  1.00000,  1,  100.0,  197.770,  59.330
4161,  '1',  59.330,  9.279,  100.660,  -21.950,  1.03000,  0,  237.320,  0.00000,  0.12390,  0.00000,  0.00000,  1.00000,  1,  100.0,  197.770,  59.330
4162,  '1',  59.330,  8.136,  100.660,  -21.950,  1.03000,  0,  237.320,  0.00000,  0.17220,  0.00000,  0.00000,  1.00000,  1,  100.0,  197.770,  59.330
4166,  '1',  135.486,  -28.940,  42.810,  -28.940,  1.00000,  0,  241.200,  0.00000,  1.00000,  0.00000,  0.00000,  1.00000,  1,  100.0,  201.000,  60.300
4177,  '1',  101.109,  -1.166,  31.950,  -21.600,  1.04000,  0,  180.000,  0.00000,  1.00000,  0.00000,  0.00000,  1.00000,  1,  100.0,  150.000,  45.000
4181,  '1',  35.462,  42.620,  42.620,  -28.810,  1.04000,  0,  240.120,  0.00000,  1.00000,  0.00000,  0.00000,  1.00000,  1,  100.0,  200.100,  60.030
4183,  '1',  136.834,  43.240,  43.240,  -29.230,  1.03000,  0,  243.600,  0.00000,  1.00000,  0.00000,  0.00000,  1.00000,  1,  100.0,  203.000,  60.900
4192,  '1',  405.690,  9.099,  688.320,  -150.120,  1.02000,  0,  1622.76,  0.00000,  0.14340,  0.00000,  0.00000,  1.00000,  1,  100.0,  1352.31,  405.690
4194,  '1',  135.890,  9.571,  42.940,  -29.030,  1.02000,  0,  241.920,  0.00000,  1.00000,  0.00000,  0.00000,  1.00000,  1,  100.0,  201.600,  60.480
4195,  '1',  62.013,  -13.250,  19.600,  -13.250,  1.00000,  0,  110.400,  0.00000,  1.00000,  0.00000,  0.00000,  1.00000,  1,  100.0,  92.000,  27.600
5023,  '1',  0.000,  0.000,  2.440,  -0.530,  1.04000,  0,  5.760,  0.00000,  0.15290,  0.00000,  0.00000,  1.00000,  0,  100.0,  4.800,  1.440
5035,  '1',  0.000,  0.000,  2.140,  -0.470,  1.02000,  0,  5.040,  0.00000,  0.14180,  0.00000,  0.00000,  1.00000,  0,  100.0,  4.200,  1.260
5036,  '1',  0.000,  3.260,  3.260,  -0.710,  1.02000,  0,  7.680,  0.00000,  0.14370,  0.00000,  0.00000,  1.00000,  0,  100.0,  6.400,  1.920
5037,  '1',  222.100,  -34.240,  157.010,  -34.240,  1.02000,  0,  370.160,  0.00000,  0.29910,  0.00000,  0.00000,  1.00000,  1,  100.0,  308.470,  92.540
5038,  '1',  222.100,  -34.240,  157.010,  -34.240,  1.02000,  0,  370.160,  0.00000,  0.12330,  0.00000,  0.00000,  1.00000,  1,  100.0,  308.470,  92.540
5039,  '1',  222.100,  -34.240,  157.010,  -34.240,  1.02000,  0,  370.160,  0.00000,  0.21470,  0.00000,  0.00000,  1.00000,  1,  100.0,  308.470,  92.540
5040,  '1',  222.100,  -34.240,  157.010,  -34.240,  1.02000,  0,  370.160,  0.00000,  0.19240,  0.00000,  0.00000,  1.00000,  1,  100.0,  308.470,  92.540
5041,  '1',  222.100,  -34.240,  157.010,  -34.240,  1.02000,  0,  370.160,  0.00000,  0.11590,  0.00000,  0.00000,  1.00000,  1,  100.0,  308.470,  92.540
5042,  '1',  222.100,  -34.240,  157.010,  -34.240,  1.02000,  0,  370.160,  0.00000,  0.19130,  0.00000,  0.00000,  1.00000,  1,  100.0,  308.470,  92.540
5051,  '1',  0.000,  43.110,  43.110,  -9.400,  1.02000,  0,  101.640,  0.00000,  0.12480,  0.00000,  0.00000,  1.00000,  0,  100.0,  84.700,  25.410
5057,  '1',  184.050,  -35.230,  161.530,  -35.230,  1.00000,  0,  380.820,  0.00000,  0.19130,  0.00000,  0.00000,  1.00000,  1,  100.0,  317.350,  95.200
5058,  '1',  184.060,  -35.230,  161.530,  -35.230,  1.00000,  0,  380.820,  0.00000,  0.29820,  0.00000,  0.00000,  1.00000,  1,  100.0,  317.350,  95.200
5065,  '1',  0.000,  5.400,  5.400,  -1.180,  1.03000,  0,  12.720,  0.00000,  0.13710,  0.00000,  0.00000,  1.00000,  0,  100.0,  10.600,  3.180
5066,  '1',  0.000,  0.920,  0.920,  -0.200,  1.03000,  0,  2.160,  0.00000,  0.13100,  0.00000,  0.00000,  1.00000,  0,  100.0,  1.800,  0.540
5067,  '1',  254.200,  3.223,  223.080,  -48.650,  1.03000,  0,  525.920,  0.00000,  0.32610,  0.00000,  0.00000,  1.00000,  1,  100.0,  438.270,  131.480
5068,  '1',  254.200,  2.041,  223.080,  -48.650,  1.03000,  0,  525.920,  0.00000,  0.11690,  0.00000,  0.00000,  1.00000,  1,  100.0,  438.270,  131.480
5069,  '1',  254.200,  1.498,  223.080,  -48.650,  1.03000,  0,  525.920,  0.00000,  0.10560,  0.00000,  0.00000,  1.00000,  1,  100.0,  438.270,  131.480
5107,  '1',  0.000,  0.000,  2.660,  -0.700,  1.04000,  0,  6.840,  0.00000,  0.27550,  0.00000,  0.00000,  1.00000,  0,  100.0,  5.700,  1.710
5166,  '1',  37.950,  30.711,  64.390,  -14.040,  1.04000,  0,  151.800,  0.00000,  0.13910,  0.00000,  0.00000,  1.00000,  1,  100.0,  126.500,  37.950
5167,  '1',  0.000,  0.810,  0.810,  -0.180,  1.04000,  0,  1.920,  0.00000,  0.10670,  0.00000,  0.00000,  1.00000,  0,  100.0,  1.600,  0.480
5206,  '1',  144.230,  -27.600,  126.570,  -27.600,  1.01000,  0,  298.400,  0.00000,  0.11980,  0.00000,  0.00000,  1.00000,  1,  100.0,  248.670,  74.600
5207,  '1',  144.230,  -27.600,  126.570,  -27.600,  1.01000,  0,  298.400,  0.00000,  0.18090,  0.00000,  0.00000,  1.00000,  1,  100.0,  248.670,  74.600
5208,  '1',  144.230,  -27.600,  126.570,  -27.600,  1.01000,  0,  298.400,  0.00000,  0.10560,  0.00000,  0.00000,  1.00000,  1,  100.0,  248.670,  74.600
5238,  '1',  39.876,  -32.400,  47.930,  -32.400,  1.00000,  0,  270.000,  0.00000,  1.00000,  0.00000,  0.00000,  1.00000,  1,  100.0,  225.000,  67.500
5262,  '1',  1215.000,  -99.630,  447.120,  -99.630,  1.01000,  0,  1458.00,  0.00000,  0.26310,  0.00000,  0.00000,  1.00000,  1,  100.0,  1215.00,  364.500
5263,  '1',  1215.000,  -99.630,  447.120,  -99.630,  1.01000,  0,  1458.00,  0.00000,  0.16260,  0.00000,  0.00000,  1.00000,  1,  100.0,  1215.00,  364.500
5281,  '1',  80.320,  -29.720,  136.280,  -29.720,  1.00000,  0,  321.280,  0.00000,  0.10660,  0.00000,  0.00000,  1.00000,  1,  100.0,  267.730,  80.320
5282,  '1',  80.320,  -29.720,  136.280,  -29.720,  1.00000,  0,  321.280,  0.00000,  0.23940,  0.00000,  0.00000,  1.00000,  1,  100.0,  267.730,  80.320
5283,  '1',  80.320,  -29.720,  136.280,  -29.720,  1.00000,  0,  321.280,  0.00000,  0.10650,  0.00000,  0.00000,  1.00000,  1,  100.0,  267.730,  80.320
5297,  '1',  0.000,  0.000,  1.630,  -0.360,  1.04000,  0,  3.840,  0.00000,  0.19100,  0.00000,  0.00000,  1.00000,  0,  100.0,  3.200,  0.960
5298,  '1',  34.500,  58.530,  58.530,  -12.760,  1.04000,  0,  138.000,  0.00000,  0.13260,  0.00000,  0.00000,  1.00000,  1,  100.0,  115.000,  34.500
5299,  '1',  34.500,  32.283,  58.530,  -12.760,  1.04000,  0,  138.000,  0.00000,  0.32280,  0.00000,  0.00000,  1.00000,  1,  100.0,  115.000,  34.500
5300,  '1',  34.500,  38.952,  58.530,  -12.760,  1.04000,  0,  138.000,  0.00000,  0.21910,  0.00000,  0.00000,  1.00000,  1,  100.0,  115.000,  34.500
5301,  '1',  0.000,  42.090,  42.090,  -9.180,  1.04000,  0,  99.240,  0.00000,  0.19640,  0.00000,  0.00000,  1.00000,  0,  100.0,  82.700,  24.810
5302,  '1',  139.130,  40.420,  236.050,  -51.480,  1.04000,  0,  556.500,  0.00000,  0.13300,  0.00000,  0.00000,  1.00000,  1,  100.0,  463.750,  139.130
5303,  '1',  139.130,  54.630,  236.050,  -51.480,  1.04000,  0,  556.500,  0.00000,  0.17920,  0.00000,  0.00000,  1.00000,  1,  100.0,  463.750,  139.130
5319,  '1',  78.840,  -29.170,  133.770,  -29.170,  1.01000,  0,  315.360,  0.00000,  0.25070,  0.00000,  0.00000,  1.00000,  1,  100.0,  262.800,  78.840
5320,  '1',  78.840,  -29.170,  133.770,  -29.170,  1.01000,  0,  315.360,  0.00000,  0.28140,  0.00000,  0.00000,  1.00000,  1,  100.0,  262.800,  78.840
5321,  '1',  78.840,  -29.170,  133.770,  -29.170,  1.01000,  0,  315.360,  0.00000,  0.12810,  0.00000,  0.00000,  1.00000,  1,  100.0,  262.800,  78.840
5324,  '1',  204.530,  44.268,  144.590,  -31.530,  1.04000,  0,  340.880,  0.00000,  0.21670,  0.00000,  0.00000,  1.00000,  1,  100.0,  284.070,  85.220
5325,  '1',  204.530,  45.745,  144.590,  -31.530,  1.04000,  0,  340.880,  0.00000,  0.15030,  0.00000,  0.00000,  1.00000,  1,  100.0,  284.070,  85.220
5326,  '1',  204.530,  125.134,  144.590,  -31.530,  1.04000,  0,  340.880,  0.00000,  0.18810,  0.00000,  0.00000,  1.00000,  1,  100.0,  284.070,  85.220
5343,  '1',  45.155,  22.203,  79.667,  -3.430,  1.04000,  0,  84.000,  0.00000,  0.24140,  0.00000,  0.00000,  1.00000,  1,  100.0,  207.500,  0.000
5360,  '1',  326.857,  -121.302,  469.730,  -122.980,  1.01000,  0,  1209.60,  0.00000,  0.25510,  0.00000,  0.00000,  1.00000,  1,  100.0,  1008.00,  302.400
5364,  '1',  123.730,  -23.680,  108.590,  -23.680,  1.00000,  0,  256.000,  0.00000,  0.13030,  0.00000,  0.00000,  1.00000,  1,  100.0,  213.330,  64.000
5365,  '1',  123.730,  -23.680,  108.590,  -23.680,  1.00000,  0,  256.000,  0.00000,  0.11650,  0.00000,  0.00000,  1.00000,  1,  100.0,  213.330,  64.000
5366,  '1',  123.730,  -23.680,  108.590,  -23.680,  1.00000,  0,  256.000,  0.00000,  0.15490,  0.00000,  0.00000,  1.00000,  1,  100.0,  213.330,  64.000
5367,  '1',  123.730,  -23.680,  108.590,  -23.680,  1.00000,  0,  256.000,  0.00000,  0.10020,  0.00000,  0.00000,  1.00000,  1,  100.0,  213.330,  64.000
5368,  '1',  123.730,  -23.680,  108.590,  -23.680,  1.00000,  0,  256.000,  0.00000,  0.36180,  0.00000,  0.00000,  1.00000,  1,  100.0,  213.330,  64.000
5369,  '1',  123.730,  -23.680,  108.590,  -23.680,  1.00000,  0,  256.000,  0.00000,  0.24440,  0.00000,  0.00000,  1.00000,  1,  100.0,  213.330,  64.000
5382,  '1',  121.220,  75.188,  106.380,  -23.200,  1.04000,  0,  250.800,  0.00000,  0.24770,  0.00000,  0.00000,  1.00000,  1,  100.0,  209.000,  62.700
5383,  '1',  121.220,  66.104,  106.380,  -23.200,  1.04000,  0,  250.800,  0.00000,  0.39820,  0.00000,  0.00000,  1.00000,  1,  100.0,  209.000,  62.700
5415,  '1',  36.600,  -13.540,  62.100,  -13.540,  1.00000,  0,  146.400,  0.00000,  0.14030,  0.00000,  0.00000,  1.00000,  1,  100.0,  122.000,  36.600
5416,  '1',  36.600,  -13.540,  62.100,  -13.540,  1.00000,  0,  146.400,  0.00000,  0.26480,  0.00000,  0.00000,  1.00000,  1,  100.0,  122.000,  36.600
5417,  '1',  36.600,  -13.540,  62.100,  -13.540,  1.00000,  0,  146.400,  0.00000,  0.16960,  0.00000,  0.00000,  1.00000,  1,  100.0,  122.000,  36.600
5418,  '1',  35.640,  -13.190,  60.470,  -13.190,  1.00000,  0,  142.560,  0.00000,  0.34000,  0.00000,  0.00000,  1.00000,  1,  100.0,  118.800,  35.640
5419,  '1',  35.640,  -13.190,  60.470,  -13.190,  1.00000,  0,  142.560,  0.00000,  0.16420,  0.00000,  0.00000,  1.00000,  1,  100.0,  118.800,  35.640
5423,  '1',  0.000,  -1.380,  6.310,  -1.380,  1.00000,  0,  14.880,  0.00000,  0.12320,  0.00000,  0.00000,  1.00000,  0,  100.0,  12.400,  3.720
5424,  '1',  0.000,  0.000,  1.630,  -0.360,  1.00000,  0,  3.840,  0.00000,  0.18820,  0.00000,  0.00000,  1.00000,  0,  100.0,  3.200,  0.960
5444,  '1',  604.980,  -223.840,  1026.440,  -223.840,  1.01000,  0,  2419.92,  0.00000,  0.34260,  0.00000,  0.00000,  1.00000,  1,  100.0,  2016.60,  604.980
6006,  '1',  63.900,  16.310,  108.420,  -23.640,  1.04000,  0,  255.600,  0.00000,  0.18770,  0.00000,  0.00000,  1.00000,  1,  100.0,  213.000,  63.900
6007,  '1',  247.080,  25.380,  216.830,  -47.290,  1.04000,  0,  511.200,  0.00000,  0.13420,  0.00000,  0.00000,  1.00000,  1,  100.0,  426.000,  127.800
6008,  '1',  59.500,  14.322,  100.950,  -22.010,  1.04000,  0,  238.000,  0.00000,  0.20160,  0.00000,  0.00000,  1.00000,  1,  100.0,  198.330,  59.500
6009,  '1',  59.500,  8.471,  100.950,  -22.010,  1.04000,  0,  238.000,  0.00000,  0.18430,  0.00000,  0.00000,  1.00000,  1,  100.0,  198.330,  59.500
6010,  '1',  59.500,  11.840,  100.950,  -22.010,  1.04000,  0,  238.000,  0.00000,  0.15620,  0.00000,  0.00000,  1.00000,  1,  100.0,  198.330,  59.500
6042,  '1',  69.681,  8.188,  122.908,  -5.290,  1.04000,  0,  129.600,  0.00000,  0.18770,  0.00000,  0.00000,  1.00000,  1,  100.0,  320.200,  0.000
6069,  '1',  54.410,  -11.566,  92.320,  -20.130,  1.03000,  0,  217.640,  0.00000,  0.22480,  0.00000,  0.00000,  1.00000,  1,  100.0,  181.370,  54.410
6070,  '1',  54.410,  -4.820,  92.320,  -20.130,  1.03000,  0,  217.640,  0.00000,  0.24660,  0.00000,  0.00000,  1.00000,  1,  100.0,  181.370,  54.410
6071,  '1',  54.410,  -14.096,  92.320,  -20.130,  1.03000,  0,  217.640,  0.00000,  0.15280,  0.00000,  0.00000,  1.00000,  1,  100.0,  181.370,  54.410
6072,  '1',  54.410,  -5.625,  92.320,  -20.130,  1.03000,  0,  217.640,  0.00000,  0.19250,  0.00000,  0.00000,  1.00000,  1,  100.0,  181.370,  54.410
6073,  '1',  54.410,  -8.699,  92.320,  -20.130,  1.03000,  0,  217.640,  0.00000,  0.14260,  0.00000,  0.00000,  1.00000,  1,  100.0,  181.370,  54.410
6074,  '1',  54.410,  -9.118,  92.320,  -20.130,  1.03000,  0,  217.640,  0.00000,  0.11150,  0.00000,  0.00000,  1.00000,  1,  100.0,  181.370,  54.410
6078,  '1',  169.000,  -68.730,  262.510,  -68.730,  1.00000,  0,  676.000,  0.00000,  0.28900,  0.00000,  0.00000,  1.00000,  1,  100.0,  563.330,  169.000
6079,  '1',  169.000,  -68.730,  262.510,  -68.730,  1.00000,  0,  676.000,  0.00000,  0.25330,  0.00000,  0.00000,  1.00000,  1,  100.0,  563.330,  169.000
6080,  '1',  169.000,  -68.730,  262.510,  -68.730,  1.00000,  0,  676.000,  0.00000,  0.32510,  0.00000,  0.00000,  1.00000,  1,  100.0,  563.330,  169.000
6106,  '1',  36.300,  61.590,  61.590,  -13.430,  1.04000,  0,  145.200,  0.00000,  0.12010,  0.00000,  0.00000,  1.00000,  1,  100.0,  121.000,  36.300
6110,  '1',  177.180,  30.419,  275.220,  -72.050,  1.04000,  0,  708.720,  0.00000,  0.16800,  0.00000,  0.00000,  1.00000,  1,  100.0,  590.600,  177.180
6111,  '1',  198.450,  30.955,  308.260,  -80.700,  1.04000,  0,  793.800,  0.00000,  0.21900,  0.00000,  0.00000,  1.00000,  1,  100.0,  661.500,  198.450
6145,  '1',  258.680,  -7.772,  227.010,  -49.510,  1.03000,  0,  535.200,  0.00000,  0.14770,  0.00000,  0.00000,  1.00000,  1,  100.0,  446.000,  133.800
6146,  '1',  258.680,  -8.045,  227.010,  -49.510,  1.03000,  0,  535.200,  0.00000,  0.11950,  0.00000,  0.00000,  1.00000,  1,  100.0,  446.000,  133.800
...
 0 /End of Generator data, Begin Branch data
1004,  1023,  '99',  0.01141,  0.34549,  0.00000,  0.00,  0.00,  0.00,  0.00000,  0.000,  0.00000,  0.00000,  0.00000,  0.00000,  1
1004,  1057,  '99',  0.62091,  4.24116,  0.00000,  0.00,  0.00,  0.00,  0.00000,  0.000,  0.00000,  0.00000,  0.00000,  0.00000,  1
1004,  2019,  '99',  0.12248,  1.17261,  0.00000,  0.00,  0.00,  0.00,  0.00000,  0.000,  0.00000,  0.00000,  0.00000,  0.00000,  1
1004,  2100,  '99',  0.05230,  0.64402,  0.00000,  0.00,  0.00,  0.00,  0.00000,  0.000,  0.00000,  0.00000,  0.00000,  0.00000,  1
1004,  2127,  '99',  0.17007,  1.01153,  0.00000,  0.00,  0.00,  0.00,  0.00000,  0.000,  0.00000,  0.00000,  0.00000,  0.00000,  1
1004,  3034,  '99',  0.41021,  3.15206,  0.00000,  0.00,  0.00,  0.00,  0.00000,  0.000,  0.00000,  0.00000,  0.00000,  0.00000,  1
1004,  3039,  '99',  0.03313,  0.33871,  0.00000,  0.00,  0.00,  0.00,  0.00000,  0.000,  0.00000,  0.00000,  0.00000,  0.00000,  1
1004,  3048,  '99',  0.04457,  0.33197,  0.00000,  0.00,  0.00,  0.00,  0.00000,  0.000,  0.00000,  0.00000,  0.00000,  0.00000,  1
1004,  3081,  '99',  0.04045,  0.42861,  0.00000,  0.00,  0.00,  0.00,  0.00000,  0.000,  0.00000,  0.00000,  0.00000,  0.00000,  1
1004,  3086,  '99',  0.55713,  4.01832,  0.00000,  0.00,  0.00,  0.00,  0.00000,  0.000,  0.00000,  0.00000,  0.00000,  0.00000,  1
1004,  3087,  '99',  0.55713,  4.01832,  0.00000,  0.00,  0.00,  0.00,  0.00000,  0.000,  0.00000,  0.00000,  0.00000,  0.00000,  1
1004,  3098,  '99',  0.03028,  0.47060,  0.00000,  0.00,  0.00,  0.00,  0.00000,  0.000,  0.00000,  0.00000,  0.00000,  0.00000,  1
1004,  3110,  '99',  0.06281,  0.51393,  0.00000,  0.00,  0.00,  0.00,  0.00000,  0.000,  0.00000,  0.00000,  0.00000,  0.00000,  1
1004,  3117,  '99',  0.42395,  4.17632,  0.00000,  0.00,  0.00,  0.00,  0.00000,  0.000,  0.00000,  0.00000,  0.00000,  0.00000,  1
1004,  3118,  '99',  0.35735,  2.87784,  0.00000,  0.00,  0.00,  0.00,  0.00000,  0.000,  0.00000,  0.00000,  0.00000,  0.00000,  1
1004,  3129,  '99',  1.41445,  4.44151,  0.00000,  0.00,  0.00,  0.00,  0.00000,  0.000,  0.00000,  0.00000,  0.00000,  0.00000,  1
1009,  1033,  '99',  0.07933,  0.70844,  0.00000,  0.00,  0.00,  0.00,  0.00000,  0.000,  0.00000,  0.00000,  0.00000,  0.00000,  1
1009,  1039,  '99',  1.38808,  4.73566,  0.00000,  0.00,  0.00,  0.00,  0.00000,  0.000,  0.00000,  0.00000,  0.00000,  0.00000,  1
1009,  1070,  '99',  -0.00824,  0.40199,  0.00000,  0.00,  0.00,  0.00,  0.00000,  0.000,  0.00000,  0.00000,  0.00000,  0.00000,  1
1009,  1082,  '99',  0.09846,  0.46294,  0.00000,  0.00,  0.00,  0.00,  0.00000,  0.000,  0.00000,  0.00000,  0.00000,  0.00000,  1
1009,  1088,  '99',  0.64168,  2.67133,  0.00000,  0.00,  0.00,  0.00,  0.00000,  0.000,  0.00000,  0.00000,  0.00000,  0.00000,  1
1021,  1026,  '99',  0.01311,  0.82407,  0.00000,  0.00,  0.00,  0.00,  0.00000,  0.000,  0.00000,  0.00000,  0.00000,  0.00000,  1
1021,  1035,  '99',  0.75964,  4.70041,  0.00000,  0.00,  0.00,  0.00,  0.00000,  0.000,  0.00000,  0.00000,  0.00000,  0.00000,  1
1021,  1084,  '99',  0.01190,  0.19548,  0.00000,  0.00,  0.00,  0.00,  0.00000,  0.000,  0.00000,  0.00000,  0.00000,  0.00000,  1
1021,  3048,  '99',  0.52803,  4.58289,  0.00000,  0.00,  0.00,  0.00,  0.00000,  0.000,  0.00000,  0.00000,  0.00000,  0.00000,  1
1021,  3112,  '99',  0.45104,  2.36443,  0.00000,  0.00,  0.00,  0.00,  0.00000,  0.000,  0.00000,  0.00000,  0.00000,  0.00000,  1
1021,  3113,  '99',  0.45104,  2.36443,  0.00000,  0.00,  0.00,  0.00,  0.00000,  0.000,  0.00000,  0.00000,  0.00000,  0.00000,  1
1023,  2100,  '99',  0.09582,  4.32408,  0.00000,  0.00,  0.00,  0.00,  0.00000,  0.000,  0.00000,  0.00000,  0.00000,  0.00000,  1
1023,  3098,  '99',  0.01858,  3.10290,  0.00000,  0.00,  0.00,  0.00,  0.00000,  0.000,  0.00000,  0.00000,  0.00000,  0.00000,  1
1023,  3110,  '99',  0.08585,  0.92635,  0.00000,  0.00,  0.00,  0.00,  0.00000,  0.000,  0.00000,  0.00000,  0.00000,  0.00000,  1
1026,  1035,  '99',  0.50141,  3.25607,  0.00000,  0.00,  0.00,  0.00,  0.00000,  0.000,  0.00000,  0.00000,  0.00000,  0.00000,  1
1026,  1042,  '99',  0.52367,  3.61739,  0.00000,  0.00,  0.00,  0.00,  0.00000,  0.000,  0.00000,  0.00000,  0.00000,  0.00000,  1
1026,  1043,  '99',  0.54467,  4.18348,  0.00000,  0.00,  0.00,  0.00,  0.00000,  0.000,  0.00000,  0.00000,  0.00000,  0.00000,  1
1026,  1066,  '99',  0.72827,  4.77027,  0.00000,  0.00,  0.00,  0.00,  0.00000,  0.000,  0.00000,  0.00000,  0.00000,  0.00000,  1
1026,  1084,  '99',  0.07229,  0.49022,  0.00000,  0.00,  0.00,  0.00,  0.00000,  0.000,  0.00000,  0.00000,  0.00000,  0.00000,  1
1033,  1039,  '99',  0.07415,  0.91276,  0.00000,  0.00,  0.00,  0.00,  0.00000,  0.000,  0.00000,  0.00000,  0.00000,  0.00000,  1
1033,  1070,  '99',  0.11940,  0.88275,  0.00000,  0.00,  0.00,  0.00,  0.00000,  0.000,  0.00000,  0.00000,  0.00000,  0.00000,  1
1033,  1081,  '99',  0.00300,  0.03093,  0.00000,  0.00,  0.00,  0.00,  0.00000,  0.000,  0.00000,  0.00000,  0.00000,  0.00000,  1
1033,  1082,  '99',  0.10757,  0.36193,  0.00000,  0.00,  0.00,  0.00,  0.00000,  0.000,  0.00000,  0.00000,  0.00000,  0.00000,  1
1033,  1088,  '99',  0.01618,  0.50952,  0.00000,  0.00,  0.00,  0.00,  0.00000,  0.000,  0.00000,  0.00000,  0.00000,  0.00000,  1
1033,  3020,  '99',  0.03652,  0.84850,  0.00000,  0.00,  0.00,  0.00,  0.00000,  0.000,  0.00000,  0.00000,  0.00000,  0.00000,  1
1033,  4115,  '99',  0.15656,  3.80743,  0.00000,  0.00,  0.00,  0.00,  0.00000,  0.000,  0.00000,  0.00000,  0.00000,  0.00000,  1
1033,  4116,  '99',  0.20399,  4.00450,  0.00000,  0.00,  0.00,  0.00,  0.00000,  0.000,  0.00000,  0.00000,  0.00000,  0.00000,  1
1033,  4195,  '99',  0.30489,  2.77530,  0.00000,  0.00,  0.00,  0.00,  0.00000,  0.000,  0.00000,  0.00000,  0.00000,  0.00000,  1
1035,  1042,  '99',  0.02709,  0.81307,  0.00000,  0.00,  0.00,  0.00,  0.00000,  0.000,  0.00000,  0.00000,  0.00000,  0.00000,  1
1035,  1043,  '99',  0.01785,  0.93881,  0.00000,  0.00,  0.00,  0.00,  0.00000,  0.000,  0.00000,  0.00000,  0.00000,  0.00000,  1
1035,  1057,  '99',  0.16090,  2.64869,  0.00000,  0.00,  0.00,  0.00,  0.00000,  0.000,  0.00000,  0.00000,  0.00000,  0.00000,  1
1035,  1066,  '99',  0.06522,  1.14375,  0.00000,  0.00,  0.00,  0.00,  0.00000,  0.000,  0.00000,  0.00000,  0.00000,  0.00000,  1
1035,  1084,  '99',  0.78451,  2.57917,  0.00000,  0.00,  0.00,  0.00,  0.00000,  0.000,  0.00000,  0.00000,  0.00000,  0.00000,  1
1035,  1088,  '99',  0.05329,  0.96426,  0.00000,  0.00,  0.00,  0.00,  0.00000,  0.000,  0.00000,  0.00000,  0.00000,  0.00000,  1
1039,  1048,  '99',  0.05175,  3.39477,  0.00000,  0.00,  0.00,  0.00,  0.00000,  0.000,  0.00000,  0.00000,  0.00000,  0.00000,  1
1039,  1053,  '99',  -0.04339,  4.54299,  0.00000,  0.00,  0.00,  0.00,  0.00000,  0.000,  0.00000,  0.00000,  0.00000,  0.00000,  1
1039,  1082,  '99',  0.01246,  0.17235,  0.00000,  0.00,  0.00,  0.00,  0.00000,  0.000,  0.00000,  0.00000,  0.00000,  0.00000,  1
1039,  1088,  '99',  0.64807,  3.18984,  0.00000,  0.00,  0.00,  0.00,  0.00000,  0.000,  0.00000,  0.00000,  0.00000,  0.00000,  1
1042,  1043,  '99',  -0.02465,  0.56599,  0.00000,  0.00,  0.00,  0.00,  0.00000,  0.000,  0.00000,  0.00000,  0.00000,  0.00000,  1
1042,  1057,  '99',  0.03031,  2.04751,  0.00000,  0.00,  0.00,  0.00,  0.00000,  0.000,  0.00000,  0.00000,  0.00000,  0.00000,  1
1042,  1066,  '99',  -0.00371,  0.70004,  0.00000,  0.00,  0.00,  0.00,  0.00000,  0.000,  0.00000,  0.00000,  0.00000,  0.00000,  1
1042,  1084,  '99',  0.81779,  2.78840,  0.00000,  0.00,  0.00,  0.00,  0.00000,  0.000,  0.00000,  0.00000,  0.00000,  0.00000,  1
1042,  1088,  '99',  0.39974,  4.21787,  0.00000,  0.00,  0.00,  0.00,  0.00000,  0.000,  0.00000,  0.00000,  0.00000,  0.00000,  1
1043,  1057,  '99',  0.00118,  2.36354,  0.00000,  0.00,  0.00,  0.00,  0.00000,  0.000,  0.00000,  0.00000,  0.00000,  0.00000,  1
1043,  1066,  '99',  -0.01583,  0.80785,  0.00000,  0.00,  0.00,  0.00,  0.00000,  0.000,  0.00000,  0.00000,  0.00000,  0.00000,  1
1043,  1084,  '99',  0.89780,  3.23160,  0.00000,  0.00,  0.00,  0.00,  0.00000,  0.000,  0.00000,  0.00000,  0.00000,  0.00000,  1
1043,  1088,  '99',  0.39173,  4.87446,  0.00000,  0.00,  0.00,  0.00,  0.00000,  0.000,  0.00000,  0.00000,  0.00000,  0.00000,  1
1048,  1049,  '99',  -0.00079,  0.36800,  0.00000,  0.00,  0.00,  0.00,  0.00000,  0.000,  0.00000,  0.00000,  0.00000,  0.00000,  1
1048,  1053,  '99',  0.00015,  0.27511,  0.00000,  0.00,  0.00,  0.00,  0.00000,  0.000,  0.00000,  0.00000,  0.00000,  0.00000,  1
1048,  1082,  '99',  0.43213,  1.93334,  0.00000,  0.00,  0.00,  0.00,  0.00000,  0.000,  0.00000,  0.00000,  0.00000,  0.00000,  1
1048,  1090,  '99',  0.07411,  0.48550,  0.00000,  0.00,  0.00,  0.00,  0.00000,  0.000,  0.00000,  0.00000,  0.00000,  0.00000,  1
1049,  1053,  '99',  -0.01326,  0.49226,  0.00000,  0.00,  0.00,  0.00,  0.00000,  0.000,  0.00000,  0.00000,  0.00000,  0.00000,  1
1049,  1082,  '99',  0.67812,  3.48061,  0.00000,  0.00,  0.00,  0.00,  0.00000,  0.000,  0.00000,  0.00000,  0.00000,  0.00000,  1
1049,  1090,  '99',  0.10873,  0.87236,  0.00000,  0.00,  0.00,  0.00,  0.00000,  0.000,  0.00000,  0.00000,  0.00000,  0.00000,  1
1053,  1081,  '99',  0.00299,  0.02991,  0.00000,  0.00,  0.00,  0.00,  0.00000,  0.000,  0.00000,  0.00000,  0.00000,  0.00000,  1
1053,  1082,  '99',  0.51393,  2.60062,  0.00000,  0.00,  0.00,  0.00,  0.00000,  0.000,  0.00000,  0.00000,  0.00000,  0.00000,  1
1053,  1090,  '99',  0.08304,  0.65193,  0.00000,  0.00,  0.00,  0.00,  0.00000,  0.000,  0.00000,  0.00000,  0.00000,  0.00000,  1
1057,  1066,  '99',  -0.01732,  1.63418,  0.00000,  0.00,  0.00,  0.00,  0.00000,  0.000,  0.00000,  0.00000,  0.00000,  0.00000,  1
1057,  1076,  '99',  0.18005,  3.44406,  0.00000,  0.00,  0.00,  0.00,  0.00000,  0.000,  0.00000,  0.00000,  0.00000,  0.00000,  1
1057,  1081,  '99',  0.23039,  4.44115,  0.00000,  0.00,  0.00,  0.00,  0.00000,  0.000,  0.00000,  0.00000,  0.00000,  0.00000,  1
1057,  1084,  '99',  0.51578,  2.83823,  0.00000,  0.00,  0.00,  0.00,  0.00000,  0.000,  0.00000,  0.00000,  0.00000,  0.00000,  1
...